/*--------------------------------*- C++ -*----------------------------------*\
| =========                 |                                                 |
| \\      /  F ield         | OpenFOAM: The Open Source CFD Toolbox           |
|  \\    /   O peration     | Version:  v1906                                 |
|   \\  /    A nd           | Web:      www.OpenFOAM.com                      |
|    \\/     M anipulation  |                                                 |
\*---------------------------------------------------------------------------*/
FoamFile
{
    version     2.0;
    format      ascii;
    class       volScalarField;
    object      p_rgh;
}
// * * * * * * * * * * * * * * * * * * * * * * * * * * * * * * * * * * * * * //

dimensions      [1 -1 -2 0 0 0 0];

internalField   uniform 0;

boundaryField
{
    btm
    {
        type            fixedFluxPressure;
        value           $internalField;
    }
    top
    {
        type            fixedFluxPressure;
        value           $internalField;
//        type            totalPressure;
//        p0              $internalField;
//        type            zeroGradient;
    }
    sym
    {
        type            symmetry;
    }
    back
    {
        type            wedge;
    }
    wallTube
    {
        type            fixedFluxPressure;
        value           $internalField;
    }
    front
    {
        type            wedge;
    }
}


// ************************************************************************* //
