/*--------------------------------*- C++ -*----------------------------------*\
  =========                 |
  \\      /  F ield         | OpenFOAM: The Open Source CFD Toolbox
   \\    /   O peration     | Website:  https://openfoam.org
    \\  /    A nd           | Version:  6
     \\/     M anipulation  |
\*---------------------------------------------------------------------------*/
FoamFile
{
    version     2.0;
    format      ascii;
    class       dictionary;
    object      transportProperties;
}
// * * * * * * * * * * * * * * * * * * * * * * * * * * * * * * * * * * * * * //

phases (Phase1 Phase2);

phaseChangeTwoPhaseMixture Weld;

pSat            0;   // Saturation pressure

sigma           0; // 0.07;

//k k [1 1 -3 1 0 0 0] 1; // kg*m/s^3*k
k 20;

cp cp [0 2 -2 -1 0 0 0] 700;

rhoRef rhoRef [1 -3 0 0 0 0 0] 1; // 4410;

htot htot [1 -1 -2 -1 0 0 0] 1;

Lf 0;

Phase1
{
    transportModel  Newtonian;
    nu              1e-04;
    rho             1;
}

Phase2
{
    transportModel  Newtonian;
    nu              1e-04;
    rho             1;
}

KunzCoeffs
{
    UInf            U20.0;
    tInf            t0.005; // L = 0.1 m
    Cc              C1000;
    Cv              C1000;
}

MerkleCoeffs
{
    UInf            20.0;
    tInf            0.005;  // L = 0.1 m
    Cc              80;
    Cv              1e-03;
}

WeldCoeffs
{
    UInf            1;
    tInf            1;  // L = 0.1 m
    Cc              1;
    Cv              1;
    Tmelt           8000; // 1940; // ti-6-4
    Tzero           0;
    Tone            1;
    kgOne           1;
    Mone            1;
    tOne            1;
    test            0;
}


SchnerrSauerCoeffs
{
    n               1.6e+13;
    dNuc            2.0e-06;
    Cc              1;
    Cv              1;
}


// ************************************************************************* //
