/*--------------------------------*- C++ -*----------------------------------*\
| =========                 |                                                 |
| \\      /  F ield         | OpenFOAM: The Open Source CFD Toolbox           |
|  \\    /   O peration     | Version:  v1906                                 |
|   \\  /    A nd           | Web:      www.OpenFOAM.com                      |
|    \\/     M anipulation  |                                                 |
\*---------------------------------------------------------------------------*/
FoamFile
{
    version     2.0;
    format      binary;
    class       volScalarField;
    object      T;
}
// * * * * * * * * * * * * * * * * * * * * * * * * * * * * * * * * * * * * * //

dimensions      [0 0 0 1 0 0 0];

internalField   uniform 505;

boundaryField
{
    hot
    {
      type   fixedValue;
        value uniform 507.05;
    } 
    top
    {
      type   zeroGradient; // adiabatic
      value           $internalField;
    }
    btm
    {
      type   zeroGradient; // adiabatic
      value           $internalField;
    }
    cold
    {
        type           fixedValue;
//        inletValue     $internalField;
        value          $internalField;
    }
    frontAndBack
    {
        type empty;
    }
    hotTop
    {
        $hot;
    }
    coldTop
    {
        $cold;
    }
}           

// ************************************************************************* //
