/*--------------------------------*- C++ -*----------------------------------*\
  =========                 |
  \\      /  F ield         | OpenFOAM: The Open Source CFD Toolbox
   \\    /   O peration     | Website:  https://openfoam.org
    \\  /    A nd           | Version:  6
     \\/     M anipulation  |
\*---------------------------------------------------------------------------*/
FoamFile
{
    version     2.0;
    format      ascii;
    class       dictionary;
    object      fvSolution;
}
// * * * * * * * * * * * * * * * * * * * * * * * * * * * * * * * * * * * * * //

solvers
{
//    "B"
    ElPot
    {
        solver           PCG;
        preconditioner   DIC;
        tolerance        1e-08;
        relTol           0;
    };
    ElPotFinal
    {   
        solver           PCG;
        preconditioner   DIC;
        tolerance        1e-05;//8;
        relTol           0;
    };
    /*
    */
    A
    {
        solver           PCG;
        preconditioner   DIC;
        tolerance        1e-08;
        relTol           0;
    };
    AFinal
    {
        solver           PCG;
        preconditioner   DIC;
        tolerance        1e-08;
        relTol           0;
    };
    T
    {
        solver          GAMG;
        smoother        DILUGaussSeidel;
//        smoother        DICGaussSeidel;
        tolerance       1.0e-6;
        relTol          0.0001;
        minIter         10;
    };
    TFinal
    {
        solver          GAMG;
        smoother        DILUGaussSeidel;
//        smoother        DICGaussSeidel;
        tolerance       1.0e-6;
        relTol          0.0001;
        minIter         10;
    };
    /*T
    {
        solver          PBiCG;
        preconditioner  DILU;
        tolerance       1.0e-6;
        relTol          0.0001;
        minIter         3;
    };*/

    "alpha.Phase*.*"
    {
        cAlpha          2;
        nAlphaCorr      1;
        nAlphaSubCycles 1;

        MULESCorr       yes;
        nLimiterIter    2;

        solver          smoothSolver;
        smoother        symGaussSeidel;
        tolerance       1e-8;
        relTol          0;
//        maxIter         10;
    };

    "U.*"
    {
        solver          smoothSolver;
        smoother        symGaussSeidel;
        tolerance       1e-6;
        relTol          0;
    };

    p_rgh
    {
        solver          GAMG;
        tolerance       1e-8;
        relTol          0.1;

        smoother        DICGaussSeidel;



        maxIter         10;
    };

    p_rghFinal
    {
        solver          PCG;
        preconditioner
        {
            preconditioner  GAMG;

            tolerance       1e-6;
            relTol          0;

            nVcycles        2;

            smoother        DICGaussSeidel;

        };
        tolerance       1e-7;
        relTol          0;
        maxIter         10;
    };

    "pcorr.*"
    {
        $p_rgh;
        relTol          0;
    };

    Phi
    {
        $p_rgh;
        relTol          0;
    };

    B
    {
        nBCorr          3;
    };
}

potentialFlow
{
    nNonOrthogonalCorrectors   3;
}

PIMPLE
{
    momentumPredictor           yes;//no; //yes;
    nOuterCorrectors            1;//1;
    nCorrectors                 3;//3;
    nNonOrthogonalCorrectors    0;

    pRefCell       0;//      (0 0 0);
    pRefValue      0;
}

relaxationFactors
{
    equations
    {
        "U.*"                   0.5;
        "p_rgh"                 0.6;
        "T"                     0.9;
    }
}

PISO
{
    nCorrectors     3;
    nNonOrthogonalCorrectors 0;
}

BPISO
{
    nCorrectors     3;
}


ElPot
{
    nCorrectors 0;
    nNonOrthogonalCorrectors 0;
    ElPotRefCell 0;
    ElPotRefValue 0;
}


// ************************************************************************* //
