/*--------------------------------*- C++ -*----------------------------------*\
  =========                 |
  \\      /  F ield         | OpenFOAM: The Open Source CFD Toolbox
   \\    /   O peration     | Website:  https://openfoam.org
    \\  /    A nd           | Version:  6
     \\/     M anipulation  |
\*---------------------------------------------------------------------------*/
FoamFile
{
    version     2.0;
    format      ascii;
    class       volScalarField;
    location    "0";
    object      alpha.Phase3;
}
// * * * * * * * * * * * * * * * * * * * * * * * * * * * * * * * * * * * * * //

dimensions      [0 0 0 0 0 0 0];

internalField   uniform 1;

boundaryField
{
    frontAndBack
    {
        type            empty;
    }
    btm
    {
        type            zeroGradient;
    }
    top
    {
        type            zeroGradient;
    }
    side1Andside2Andside3
    {
//        type            zeroGradient;
        $top;
    }
    top_side1Andside2Andside3
    {
        $btm;
    }
    btm_side1Andside2Andside3
    {
        $btm;
    }
}