/*--------------------------------*- C++ -*----------------------------------*\
  =========                 |
  \\      /  F ield         | OpenFOAM: The Open Source CFD Toolbox
   \\    /   O peration     | Website:  https://openfoam.org
    \\  /    A nd           | Version:  6
     \\/     M anipulation  |
\*---------------------------------------------------------------------------*/
FoamFile
{
    version     2.0;
    format      ascii;
    class       dictionary;
    location    "system";
    object      codeDict;
}
// * * * * * * * * * * * * * * * * * * * * * * * * * * * * * * * * * * * * * //
top
{code   #{
        const scalarField& delta = patch().deltaCoeffs();
        const fvMesh& mesh = patch().boundaryMesh().mesh();
		const label patchi = patch().index();
        this->refValue() = 298;
    	this->refGrad() = 0;
	    this->valueFraction() = 1.0/(1.0+1.0/(1.0/delta));
#};};