/*--------------------------------*- C++ -*----------------------------------*\
  =========                 |
  \\      /  F ield         | OpenFOAM: The Open Source CFD Toolbox
   \\    /   O peration     | Website:  https://openfoam.org
    \\  /    A nd           | Version:  6
     \\/     M anipulation  |
\*---------------------------------------------------------------------------*/
FoamFile
{
    version     2.0;
    format      ascii;
    class       dictionary;
    object      fvSchemes;
}
// * * * * * * * * * * * * * * * * * * * * * * * * * * * * * * * * * * * * * //

ddtSchemes
{
    default             Euler;
}

interpolationSchemes
{
    default             linear;
}

divSchemes
{
    default             Gauss linear;
//    default             Gauss upwind;
    div(rhoPhi,U)       Gauss linearUpwind grad(U);
    div(phi,omega)      Gauss linearUpwind grad(omega);
    div(phi,k)          Gauss linearUpwind grad(k);
    div(phi,alpha)      Gauss vanLeer;
    div(phi,alpha.Phase1)     Gauss vanLeer;
    div(phirb,alpha)    Gauss vanLeer;
    div(((rho*nuEff)*dev2(T(grad(U))))) Gauss linear;
    div(phi,htot)       Gauss upwind;
    div(phi,delH)       Gauss upwind;
    div(rhoPhiCp,T)     Gauss linearUpwind grad(T);
    div(phi,T)          Gauss upwind;
    div(htot)       Gauss upwind;
//    div((k/(cp))*grad(htot)) Gauss upwind;
}

gradSchemes
{
    default             Gauss linear;
}

laplacianSchemes
{
    default             Gauss linear corrected;
}

snGradSchemes
{
    default             corrected;
}


// ************************************************************************* //
