/*--------------------------------*- C++ -*----------------------------------*\
  =========                 |
  \\      /  F ield         | OpenFOAM: The Open Source CFD Toolbox
   \\    /   O peration     | Website:  https://openfoam.org
    \\  /    A nd           | Version:  6
     \\/     M anipulation  |
\*---------------------------------------------------------------------------*/
FoamFile
{
    version     2.0;
    format      ascii;
    class       dictionary;
    location    "constant";
    object      dynamicMeshDict;
}
// * * * * * * * * * * * * * * * * * * * * * * * * * * * * * * * * * * * * * //

dynamicFvMesh   dynamicRefineFvMesh2D;

// How often to refine
refineInterval  1;

// Field to be refinement on
field           alpha2WeightedAv;
//field           alpha.Phase2;

// Refine field in between lower..upper
//lowerRefineLevel 0.01;
//upperRefineLevel 0.99;
lowerRefineLevel 0.1;
upperRefineLevel 0.9;

// If value < unrefineLevel unrefine
unrefineLevel   10;//0.05;

// Have slower than 2:1 refinement
nBufferLayers   1;

// Refine cells only up to maxRefinement levels
maxRefinement   1;

// Stop refinement if maxCells reached
//maxCells        35000;
maxCells        150000;

// Flux field and corresponding velocity field. Fluxes on changed
// faces get recalculated by interpolating the velocity. Use 'U'
// on surfaceScalarFields that do not need to be reinterpolated.
correctFluxes
(
    (phi none)
//    (rho none)
    (kEff none)
    (kf none)
    (kfAc none)
    (kf_net none)
    (kf2 none)
    (rhoPhiCp none)
//    (kEff none)
    (kf0 none)   
    (nHatf none)
    (rhoPhi none)
    (alphaPhi0 none)
    (alphaPhi0.Phase1 none)
    (alphaPhi0.Phase2 none)
    (alphaPhi0.Phase3 none)
    (alphaPhi02 none)
    (geel none)
    (interpolate((1-alpha3)) none)
    (ghf none)

);

// Write the refinement level as a volScalarField
dumpLevel       true;


// ************************************************************************* //
